LAMMPS (29 Aug 2024 - Development - patch_29Aug2024-704-g6d0e633edf)
# LAMMPS input generated from LammpsInputFile with pymatgen v2024.10.29

# Sample input script template for MD

# Initialization

# Stage 3
units metal
atom_style atomic
dimension 3
boundary p p p

# Atom definition

# md.restart
read_data system.data
Reading data file ...
  triclinic box = (0 0 0) to (3.823792 3.311501 3.122113) with tilt (1.911896 1.911896 1.103834)
  reading atoms ...
  2 atoms

# Force field settings (consult official document for detailed formats)

# Stage 7
pair_style tersoff
pair_coeff * * /Users/virkaran/Code/Notebooks/lammps_flows/test_new/../pmg_data/Si.tersoff Si
Reading tersoff potential file /Users/virkaran/Code/Notebooks/lammps_flows/test_new/../pmg_data/Si.tersoff with DATE: 2007-10-25

# Create velocities
velocity all create 300 42 mom yes rot yes dist gaussian

# Stage 9
neigh_modify delay 5 every 1 check yes

# Ensemble constraints 1 all nve 2 all nose-hoover 300 300 0.1
fix 3 all npt temp 300 300 0.1 iso 0 0 0.1

# Output settings
thermo 100
dump d1 all custom 100 traj.dump id element x y z vx vy vz fx fy fz
dump_modify d1 sort id element Si

# Actions
timestep 0.001
run 10000

CITE-CITE-CITE-CITE-CITE-CITE-CITE-CITE-CITE-CITE-CITE-CITE-CITE

Your simulation uses code contributions which should be cited:

- Type Label Framework: https://doi.org/10.1021/acs.jpcb.3c08419

@Article{Gissinger24,
 author = {Jacob R. Gissinger, Ilia Nikiforov, Yaser Afshar, Brendon Waters, Moon-ki Choi, Daniel S. Karls, Alexander Stukowski, Wonpil Im, Hendrik Heinz, Axel Kohlmeyer, and Ellad B. Tadmor},
 title = {Type Label Framework for Bonded Force Fields in LAMMPS},
 journal = {J. Phys. Chem. B},
 year =    2024,
 volume =  128,
 number =  13,
 pages =   {3282--3297}
}

CITE-CITE-CITE-CITE-CITE-CITE-CITE-CITE-CITE-CITE-CITE-CITE-CITE

Step          Temp          E_pair         E_mol          TotEng         Press          Volume
0   300           -9.2248218      0             -9.1860438      16937.361      39.533728
Averages over the last 51 of 101 rows, steps 5000 to 10000:
Temp E_pair E_mol TotEng Press Volume
282.189 -9.20746 0 -9.17099 -1274.85 40.4042
Loop time of 0.0344797 on 1 procs for 10000 steps with 2 atoms

write_restart md.restart
System init for write_restart ...
