LAMMPS (29 Aug 2024 - Development - patch_29Aug2024-704-g6d0e633edf)
# LAMMPS input generated from LammpsInputFile with pymatgen v2024.10.29

# Sample input script template for MD

# Initialization

# Stage 3
units metal
atom_style atomic
dimension 3
boundary p p p

# Atom definition

# md.restart
read_data system.data
Reading data file ...
  triclinic box = (0 0 0) to (3.866975 3.348898 3.157372) with tilt (1.933487 1.933487 1.116299)
  reading atoms ...
  2 atoms

# Force field settings (consult official document for detailed formats)

# Stage 7
pair_style tersoff
pair_coeff * * /Users/virkaran/Code/Notebooks/lammps_flows/test_new/../pmg_data/Si.tersoff Si
Reading tersoff potential file /Users/virkaran/Code/Notebooks/lammps_flows/test_new/../pmg_data/Si.tersoff with DATE: 2007-10-25

# Create velocities
velocity all create 300 42 mom yes rot yes dist gaussian

# Stage 9
neigh_modify delay 5 every 1 check yes

# Ensemble constraints 1 all nve 2 all nose-hoover 300 300 0.1
fix 3 all npt temp 300 300 0.1 iso 0 0 0.1

# Output settings
thermo 100 # output thermo data every N steps
dump d1 all custom 100 traj.dump id element x y z vx vy vz fx fy fz
dump_modify d1 sort id element Si

# Actions
timestep 0.001
run 1000

CITE-CITE-CITE-CITE-CITE-CITE-CITE-CITE-CITE-CITE-CITE-CITE-CITE

Your simulation uses code contributions which should be cited:

- Type Label Framework: https://doi.org/10.1021/acs.jpcb.3c08419

@Article{Gissinger24,
 author = {Jacob R. Gissinger, Ilia Nikiforov, Yaser Afshar, Brendon Waters, Moon-ki Choi, Daniel S. Karls, Alexander Stukowski, Wonpil Im, Hendrik Heinz, Axel Kohlmeyer, and Ellad B. Tadmor},
 title = {Type Label Framework for Bonded Force Fields in LAMMPS},
 journal = {J. Phys. Chem. B},
 year =    2024,
 volume =  128,
 number =  13,
 pages =   {3282--3297}
}

CITE-CITE-CITE-CITE-CITE-CITE-CITE-CITE-CITE-CITE-CITE-CITE-CITE

Step          Temp          E_pair         E_mol          TotEng         Press          Volume
0   300           -9.2557091      0             -9.2169311     -18235.368      40.888298
Averages over the last 6 of 11 rows, steps 500 to 1000:
Temp E_pair E_mol TotEng Press Volume
261.668 -9.21042 0 -9.1766 -18714 41.1662
Loop time of 0.00480737 on 1 procs for 1000 steps with 2 atoms

write_restart md.restart
System init for write_restart ...
